REMARK  Name = ADC_1A7A
REMARK                            x       y       z     vdW  Elec       q    Type
REMARK                         _______ _______ _______ _____ _____    ______ ____
ROOT
ATOM      1  C   LIG    1       19.451  59.077  54.675  0.00  0.00    +0.036 C 
ATOM      2  C   LIG    1       20.947  59.114  54.455  0.00  0.00    +0.126 C 
ATOM      3  N   LIG    1       21.808  58.038  54.961  0.00  0.00    -0.309 N 
ATOM      4  C   LIG    1       22.731  58.182  55.959  0.00  0.00    +0.166 A 
ATOM      5  N   LIG    1       23.033  59.299  56.718  0.00  0.00    -0.216 NA
ATOM      6  C   LIG    1       24.025  59.040  57.603  0.00  0.00    +0.225 A 
ATOM      7  N   LIG    1       24.689  57.891  57.795  0.00  0.00    -0.219 NA
ATOM      8  C   LIG    1       24.402  56.776  57.054  0.00  0.00    +0.147 A 
ATOM      9  N   LIG    1       25.078  55.614  57.248  0.00  0.00    -0.341 N 
ATOM     10  H   LIG    1       25.786  55.565  57.930  0.00  0.00    +0.144 HD
ATOM     11  H   LIG    1       24.860  54.821  56.707  0.00  0.00    +0.144 HD
ATOM     12  C   LIG    1       23.371  56.905  56.083  0.00  0.00    +0.147 A 
ATOM     13  N   LIG    1       22.795  56.048  55.158  0.00  0.00    -0.231 NA
ATOM     14  C   LIG    1       21.887  56.741  54.525  0.00  0.00    +0.202 A 
ATOM     15  C   LIG    1       21.014  59.702  52.988  0.00  0.00    +0.203 C 
ATOM     16  O   LIG    1       22.118  60.569  52.776  0.00  0.00    -0.382 OA
ATOM     17  H   LIG    1       22.070  61.313  53.397  0.00  0.00    +0.210 HD
ATOM     18  C   LIG    1       19.746  60.535  52.860  0.00  0.00    +0.164 C 
ATOM     19  O   LIG    1       19.486  61.190  51.874  0.00  0.00    -0.295 OA
ATOM     20  C   LIG    1       18.792  59.881  53.783  0.00  0.00    +0.079 C 
ENDROOT
TORSDOF 3
