REMARK  Name = 1HWK
REMARK                            x       y       z     vdW  Elec       q    Type
REMARK                         _______ _______ _______ _____ _____    ______ ____
ROOT
ATOM      1  C   LIG    1       19.285   8.745  18.306  0.00  0.00    +0.008 A 
ATOM      2  C   LIG    1       19.747   9.073  19.594  0.00  0.00    +0.001 A 
ATOM      3  C   LIG    1       20.360  10.309  19.845  0.00  0.00    +0.000 A 
ATOM      4  C   LIG    1       20.517  11.230  18.807  0.00  0.00    +0.001 A 
ATOM      5  C   LIG    1       20.056  10.912  17.509  0.00  0.00    +0.008 A 
ATOM      6  C   LIG    1       19.428   9.642  17.234  0.00  0.00    -0.015 A 
ATOM      7  C   LIG    1       18.938   9.369  15.911  0.00  0.00    +0.020 A 
ATOM      8  C   LIG    1       19.616   9.462  14.655  0.00  0.00    +0.066 A 
ATOM      9  C   LIG    1       18.693   9.107  13.629  0.00  0.00    +0.035 A 
ATOM     10  C   LIG    1       18.900   9.051  12.068  0.00  0.00    +0.030 C 
ATOM     11  C   LIG    1       19.882   7.943  11.597  0.00  0.00    +0.014 C 
ATOM     12  C   LIG    1       19.365  10.394  11.483  0.00  0.00    +0.014 C 
ATOM     13  N   LIG    1       17.458   8.768  14.182  0.00  0.00    -0.342 N 
ATOM     14  C   LIG    1       16.231   8.321  13.425  0.00  0.00    +0.124 C 
ATOM     15  C   LIG    1       16.378   6.866  12.914  0.00  0.00    +0.053 C 
ATOM     16  C   LIG    1       15.039   6.277  12.455  0.00  0.00    +0.119 C 
ATOM     17  O   LIG    1       14.833   6.571  11.095  0.00  0.00    -0.392 OA
ATOM     18  H   LIG    1       15.543   6.159  10.598  0.00  0.00    +0.210 HD
ATOM     19  C   LIG    1       15.013   4.751  12.591  0.00  0.00    +0.063 C 
ATOM     20  C   LIG    1       14.794   4.301  14.003  0.00  0.00    +0.128 C 
ATOM     21  C   LIG    1       14.871   2.789  14.154  0.00  0.00    +0.151 C 
ATOM     22  C   LIG    1       15.039   2.455  15.600  0.00  0.00    +0.307 C 
ATOM     23  O   LIG    1       13.948   1.931  16.145  0.00  0.00    -0.251 OA
ATOM     24  O   LIG    1       16.064   2.671  16.215  0.00  0.00    -0.481 OA
ATOM     25  H   LIG    1       16.037   2.433  17.145  0.00  0.00    +0.295 HD
ATOM     26  O   LIG    1       13.508   4.697  14.410  0.00  0.00    -0.391 OA
ATOM     27  H   LIG    1       13.386   4.401  15.315  0.00  0.00    +0.210 HD
ATOM     28  C   LIG    1       21.063   9.840  14.344  0.00  0.00    +0.251 C 
ATOM     29  O   LIG    1       21.840   8.911  14.104  0.00  0.00    -0.270 OA
ATOM     30  N   LIG    1       21.483  11.199  14.306  0.00  0.00    -0.281 N 
ATOM     31  H   LIG    1       20.787  11.896  14.528  0.00  0.00    +0.155 HD
ATOM     32  C   LIG    1       22.647  11.623  14.021  0.00  0.00    +0.034 A 
ATOM     33  C   LIG    1       23.798  10.886  14.391  0.00  0.00    +0.023 A 
ATOM     34  C   LIG    1       25.073  11.344  14.047  0.00  0.00    +0.002 A 
ATOM     35  C   LIG    1       25.220  12.535  13.333  0.00  0.00    +0.000 A 
ATOM     36  C   LIG    1       24.091  13.279  12.963  0.00  0.00    +0.002 A 
ATOM     37  C   LIG    1       22.805  12.828  13.300  0.00  0.00    +0.023 A 
ATOM     38  C   LIG    1       17.623   8.914  15.596  0.00  0.00    +0.058 A 
ATOM     39  C   LIG    1       16.601   8.611  16.528  0.00  0.00    -0.001 A 
ATOM     40  C   LIG    1       16.199   7.244  16.626  0.00  0.00    +0.013 A 
ATOM     41  C   LIG    1       15.215   6.843  17.526  0.00  0.00    +0.039 A 
ATOM     42  C   LIG    1       14.610   7.792  18.352  0.00  0.00    +0.123 A 
ATOM     43  F   LIG    1       13.645   7.394  19.239  0.00  0.00    -0.205 F 
ATOM     44  C   LIG    1       14.984   9.139  18.278  0.00  0.00    +0.039 A 
ATOM     45  C   LIG    1       15.977   9.555  17.372  0.00  0.00    +0.013 A 
ENDROOT
TORSDOF 15
